
  -OEChem-10162012013D

 17 18  0     0  0  0  0  0  0999 V2000
    0.8726    1.2794    1.5062 C   0  0  0  0  0  0  0  0  0  0  0  0
    0.7042    1.9049    2.7438 C   0  0  0  0  0  0  0  0  0  0  0  0
   -1.3491    0.2943    1.6535 C   0  0  0  0  0  0  0  0  0  0  0  0
   -0.1481    0.4787    0.9641 C   0  0  0  0  0  0  0  0  0  0  0  0
   -0.4910    1.7067    3.4041 C   0  0  0  0  0  0  0  0  0  0  0  0
   -1.4901    0.9230    2.8735 C   0  0  0  0  0  0  0  0  0  0  0  0
    0.0509   -0.1711   -0.3421 C   0  0  0  0  0  0  0  0  0  0  0  0
   -2.1588    1.6916    4.7825 C   0  0  0  0  0  0  0  0  0  0  0  0
   -0.8957   -0.9006   -0.8214 O   0  5  0  0  0  0  0  0  0  0  0  0
    1.1650    0.0117   -0.9613 O   0  0  0  0  0  0  0  0  0  0  0  0
   -0.8328    2.2326    4.6117 O   0  0  0  0  0  0  0  0  0  0  0  0
   -2.5825    0.8600    3.6827 O   0  0  0  0  0  0  0  0  0  0  0  0
    1.8043    1.4193    0.9628 H   0  0  0  0  0  0  0  0  0  0  0  0
    1.4890    2.5235    3.1639 H   0  0  0  0  0  0  0  0  0  0  0  0
   -2.1453   -0.3210    1.2481 H   0  0  0  0  0  0  0  0  0  0  0  0
   -2.1779    1.0939    5.7013 H   0  0  0  0  0  0  0  0  0  0  0  0
   -2.8663    2.5220    4.8879 H   0  0  0  0  0  0  0  0  0  0  0  0
  1  2  1  0  0  0  0
  1  4  2  0  0  0  0
  2  5  2  0  0  0  0
  3  4  1  0  0  0  0
  3  6  2  0  0  0  0
  4  7  1  0  0  0  0
  5  6  1  0  0  0  0
  5 11  1  0  0  0  0
  6 12  1  0  0  0  0
  7  9  1  0  0  0  0
  7 10  2  0  0  0  0
  8 11  1  0  0  0  0
  8 12  1  0  0  0  0
  1 13  1  0  0  0  0
  2 14  1  0  0  0  0
  3 15  1  0  0  0  0
  8 16  1  0  0  0  0
  8 17  1  0  0  0  0
M  CHG  1   9  -1
M  END
> <OE_AM1_SCF_ENERGY>
-148.6853

$$$$
